#
# *******************
# Calendar Parameters
# *******************
 &CAL_NML
 TheCalendar='gregorian',
# TheCalendar='model',
 startDate_1=20060101,
 startDate_2=000000,
 &
